 .Sol file Watershed HRU:10 Subbasin:6 HRU:2 Luse:FRSE Soil: FAGASA Slope: 1.0-3.0 2/12/2020 14:38:34 QSWAT Workflow v1.5.2
 Soil Name: FAGASA
 Soil Hydrologic Group: C
 Maximum rooting depth(mm) :  840.00
 Porosity fraction from which anions are excluded: 0.500
 Crack volume potential of soil: 0.500
 Texture 1                : SIC-CB-SIC-SIC-BR
 Depth                [mm]:      130.00      300.00      740.00      840.00
 Bulk Density Moist [g/cc]:        1.05        1.05        1.05        0.00
 Ave. AW Incl. Rock Frag  :        0.13        0.13        0.13        0.00
 Ksat. (est.)      [mm/hr]:      101.63      101.63      101.63       78.77
 Organic Carbon [weight %]:        4.06        2.32        1.16        0.00
 Clay           [weight %]:       47.00       45.00       40.00        0.00
 Silt           [weight %]:       47.00       47.80       52.00        0.00
 Sand           [weight %]:        6.00        7.20        8.00        0.00
 Rock Fragments   [vol. %]:       20.00       29.00       15.00        0.00
 Soil Albedo (Moist)      :        0.16        0.16        0.16        0.16
 Erosion K                :        0.10        0.17        0.15        0.00
 Salinity (EC, Form 5)    :        0.00        0.00        0.00        0.00
 Soil pH                  :        0.00        0.00        0.00        0.00
 Soil CACO3               :        0.00        0.00        0.00        0.00
                              
