 .sdr file Watershed HRU:28 Subbasin:3 HRU:2 Luse:FRSE Soil: AUA Slope: 3.0-9999 2/12/2020 14:39:07 QSWAT Workflow v1.5.2
     50.00    | RE: Effective radius of drains (mm)
  15000.00    | SDRAIN: Distance bwtween two drain tubes or tiles (mm)
     10.00    | DRAIN_CO: Drainage coefficient (mm/day)
      1.00    | PC: Pump capacity (def pump cap - 1.042mm/hr or 25mm/day)
      1.00    | LATKSATF: Multiplication factor to determine conk(j1,j) from sol_k(j1,k) for HRU
