 .chm file Watershed HRU:23 Subbasin:2 HRU:13 Luse:WATR Soil: TX357 Slope: 5.0-10.0 2/7/2020 21:51:39 QSWAT Workflow v1.5.2
Soil Nutrient Data
 Soil Layer               :           1           2           3           4           5           6           7           8           9          10
 Soil NO3 [mg/kg]         :        0.00        0.00        0.00        0.00        0.00        0.00        0.00        0.00        0.00        0.00
 Soil organic N [mg/kg]   :        0.00        0.00        0.00        0.00        0.00        0.00        0.00        0.00        0.00        0.00
 Soil labile P [mg/kg]    :        5.00        5.00        5.00        5.00        5.00        5.00        5.00        5.00        5.00        5.00
 Soil organic P [mg/kg]   :        0.00        0.00        0.00        0.00        0.00        0.00        0.00        0.00        0.00        0.00
 Phosphorus perc coef     :       10.00       10.00       10.00       10.00       10.00       10.00       10.00       10.00       10.00       10.00
Soil Pesticide Data
 Pesticide  Pst on plant    Pst in 1st soil layer Pst enrichment
   #           [kg/ha]           [kg/ha]           [kg/ha]
                  0.00              0.00              0.00
                  0.00              0.00              0.00
                  0.00              0.00              0.00
                  0.00              0.00              0.00
                  0.00              0.00              0.00
                  0.00              0.00              0.00
                  0.00              0.00              0.00
                  0.00              0.00              0.00
                  0.00              0.00              0.00
                  0.00              0.00              0.00
