 .Sol file Watershed HRU:121 Subbasin:12 HRU:2 Luse:RNGE Soil: TX619 Slope: 0-5.0 2/7/2020 21:51:46 QSWAT Workflow v1.5.2
 Soil Name: TX619
 Soil Hydrologic Group: -
 Maximum rooting depth(mm) : -999.00
 Porosity fraction from which anions are excluded: 0.500
 Crack volume potential of soil: 0.500
 Texture 1                : -999
 Depth                [mm]:
 Bulk Density Moist [g/cc]:
 Ave. AW Incl. Rock Frag  :
 Ksat. (est.)      [mm/hr]:
 Organic Carbon [weight %]:
 Clay           [weight %]:
 Silt           [weight %]:
 Sand           [weight %]:
 Rock Fragments   [vol. %]:
 Soil Albedo (Moist)      :
 Erosion K                :
 Salinity (EC, Form 5)    :
 Soil pH                  :
 Soil CACO3               :
                              
