 .sdr file Watershed HRU:110 Subbasin:11 HRU:4 Luse:PAST Soil: TX619 Slope: 0-5.0 2/7/2020 21:51:41 QSWAT Workflow v1.5.2
     50.00    | RE: Effective radius of drains (mm)
  15000.00    | SDRAIN: Distance bwtween two drain tubes or tiles (mm)
     10.00    | DRAIN_CO: Drainage coefficient (mm/day)
      1.00    | PC: Pump capacity (def pump cap - 1.042mm/hr or 25mm/day)
      1.00    | LATKSATF: Multiplication factor to determine conk(j1,j) from sol_k(j1,k) for HRU
