 .Wgn file Subbasin: 88 STATION NAME:FAKEOUT 12/20/2019 06:57:07 QSWAT Workflow v1.5.2
  LATITUDE = -14.29 LONGITUDE =-170.69
  ELEV [m] =  26.81
  RAIN_YRS =  22.00
 26.00 28.00 28.00 28.00 28.00 25.00 23.00 23.00 24.00 25.00 25.00 26.00
  6.00  8.00  9.00 10.00 11.00 11.00 11.00 11.00 10.00  9.00  8.00  7.00
  4.47  4.70  4.81  4.81  4.70  4.31  3.86  3.87  4.09  4.18  4.29  4.38
  0.82  1.07  1.34  1.54  1.65  1.67  1.69  1.66  1.52  1.40  1.13  0.91
  23.8  25.0  56.0  59.0 106.0 150.0 298.0 249.0 158.0 122.0  53.0  37.0
  1.55  2.18  4.18  4.23  6.83  7.30 10.46  9.19  7.09  6.57  3.01  1.88
  1.88  7.69  4.70  6.72  4.67  3.18  1.98  2.24  3.09  2.80  3.36  1.67
  0.02  0.05  0.12  0.15  0.25  0.46  0.84  0.84  0.61  0.29  0.12  0.06
  0.89  0.80  0.76  0.77  0.76  0.80  0.89  0.88  0.81  0.75  0.79  0.85
  6.55  6.73 10.95 12.91 16.77 21.95 28.41 28.09 24.23 17.73 12.50 10.18
  0.07  0.07  0.16  0.16  0.29  0.42  0.83  0.69  0.44  0.34  0.15  0.10
 20.08 21.46 21.66 21.12 19.41 16.77 15.04 15.99 18.95 21.60 21.68 20.22
 16.41 17.18 17.98 18.25 18.54 17.83 16.39 16.40 16.88 16.97 16.61 16.36
  1.37  1.63  1.57  1.67  1.56  1.43  1.20  1.21  1.23  1.13  1.10  1.34
