 .sub file Subbasin: 106 12/20/2019 06:57:03 QSWAT Workflow v1.5.2
        0.023976    | SUB_KM : Subbasin area [km2]

Climate in subbasin
      -14.291559    | LATITUDE : Latitude of subbasin [degrees]
           38.57    | ELEV : Elevation of subbasin [m]
               5    | IRGAGE: precip gage data used in subbasin
               5    | ITGAGE: temp gage data used in subbasin
               1    | ISGAGE: solar radiation gage data used in subbasin
               1    | IHGAGE: relative humidity gage data used in subbasin
               1    | IWGAGE: wind speed gage data used in subbasin
001060000.wgn       | WGNFILE: name of weather generator data file
               1    | FCST_REG: Region number used to assign forecast data to the subbasin
Elevation Bands
| ELEVB: Elevation at center of elevation bands [m]
   0.000   0.000   0.000   0.000   0.000   0.000   0.000   0.000   0.000   0.000
| ELEVB_FR: Fraction of subbasin area within elevation band
   0.000   0.000   0.000   0.000   0.000   0.000   0.000   0.000   0.000   0.000
| SNOEB: Initial snow water content in elevation band [mm]
     0.0     0.0     0.0     0.0     0.0     0.0     0.0     0.0     0.0     0.0
           0.000    | PLAPS : Precipitation lapse rate [mm/km]
           0.000    | TLAPS : Temperature lapse rate [deg C/km]
           0.000    | SNO_SUB : Initial snow water content [mm]
Tributary Channels
           0.336    | CH_L1 : Longest tributary channel length [km]
           0.321    | CH_S1 : Average slope of tributary channel [m/m]
           0.138    | CH_W1 : Average width of tributary channel [m]
           0.000    | CH_K1 : Effective hydraulic conductivity in tributary channel [mm/hr]
           0.014    | CH_N1 : Manning's 'n' value for the tributary channels
Impoundments
001060000.pnd       | PNDFILE: name of subbasin impoundment file
Consumptive Water Use
001060000.wus       | WUSFILE: name of subbasin water use file
Climate Change
         330.000    | CO2 : Carbon dioxide concentration [ppmv]
| RFINC:  Climate change monthly rainfall adjustment (January - June)
   0.000   0.000   0.000   0.000   0.000   0.000
| RFINC:  Climate change monthly rainfall adjustment (July - December)
   0.000   0.000   0.000   0.000   0.000   0.000
| TMPINC: Climate change monthly temperature adjustment (January - June)
   0.000   0.000   0.000   0.000   0.000   0.000
| TMPINC: Climate change monthly temperature adjustment (July - December)
   0.000   0.000   0.000   0.000   0.000   0.000
| RADINC: Climate change monthly radiation adjustment (January - June)
   0.000   0.000   0.000   0.000   0.000   0.000
| RADINC: Climate change monthly radiation adjustment (July - December)
   0.000   0.000   0.000   0.000   0.000   0.000
| HUMINC: Climate change monthly humidity adjustment (January - June)
   0.000   0.000   0.000   0.000   0.000   0.000
| HUMINC: Climate change monthly humidity adjustment (July - December)
   0.000   0.000   0.000   0.000   0.000   0.000
| HRU data
              11    | HRUTOT : Total number of HRUs modeled in subbasin

HRU: Depressional Storage/Pothole

Floodplain

HRU: Riparian

HRU: General
001060001.hru001060001.mgt001060001.sol001060001.chm 001060001.gw             001060001.sep
001060002.hru001060002.mgt001060002.sol001060002.chm 001060002.gw             001060002.sep
001060003.hru001060003.mgt001060003.sol001060003.chm 001060003.gw             001060003.sep
001060004.hru001060004.mgt001060004.sol001060004.chm 001060004.gw             001060004.sep
001060005.hru001060005.mgt001060005.sol001060005.chm 001060005.gw             001060005.sep
001060006.hru001060006.mgt001060006.sol001060006.chm 001060006.gw             001060006.sep
001060007.hru001060007.mgt001060007.sol001060007.chm 001060007.gw             001060007.sep
001060008.hru001060008.mgt001060008.sol001060008.chm 001060008.gw             001060008.sep
001060009.hru001060009.mgt001060009.sol001060009.chm 001060009.gw             001060009.sep
001060010.hru001060010.mgt001060010.sol001060010.chm 001060010.gw             001060010.sep
001060011.hru001060011.mgt001060011.sol001060011.chm 001060011.gw             001060011.sep
