Watershed atmospheric deposition file      .atm file 2/7/2020 21:48:54 QSWAT Workflow v1.5.2




             0.000     0.000     0.000     0.000
             0.000     0.000     0.000     0.000
             0.000     0.000     0.000     0.000
