Watershed atmospheric deposition file      .atm file 2/11/2020 16:46:09 QSWAT Workflow v1.5.2




             0.000     0.000     0.000     0.000
             0.000     0.000     0.000     0.000
             0.000     0.000     0.000     0.000
