 .chm file Watershed HRU:18 Subbasin:4 HRU:3 Luse:BARR Soil: FAGASA Slope: 3.0-9999 2/6/2020 17:49:41 QSWAT Workflow v1.5.2
Soil Nutrient Data
 Soil Layer               :           1           2           3           4           5           6           7           8           9          10
 Soil NO3 [mg/kg]         :        0.00        0.00        0.00        0.00        0.00        0.00        0.00        0.00        0.00        0.00
 Soil organic N [mg/kg]   :        0.00        0.00        0.00        0.00        0.00        0.00        0.00        0.00        0.00        0.00
 Soil labile P [mg/kg]    :        5.00        5.00        5.00        5.00        5.00        5.00        5.00        5.00        5.00        5.00
 Soil organic P [mg/kg]   :        0.00        0.00        0.00        0.00        0.00        0.00        0.00        0.00        0.00        0.00
 Phosphorus perc coef     :       10.00       10.00       10.00       10.00       10.00       10.00       10.00       10.00       10.00       10.00
Soil Pesticide Data
 Pesticide  Pst on plant    Pst in 1st soil layer Pst enrichment
   #           [kg/ha]           [kg/ha]           [kg/ha]
                  0.00              0.00              0.00
                  0.00              0.00              0.00
                  0.00              0.00              0.00
                  0.00              0.00              0.00
                  0.00              0.00              0.00
                  0.00              0.00              0.00
                  0.00              0.00              0.00
                  0.00              0.00              0.00
                  0.00              0.00              0.00
                  0.00              0.00              0.00
