 .sub file Subbasin: 35 12/20/2019 06:57:03 QSWAT Workflow v1.5.2
        0.021816    | SUB_KM : Subbasin area [km2]

Climate in subbasin
      -14.290472    | LATITUDE : Latitude of subbasin [degrees]
          210.79    | ELEV : Elevation of subbasin [m]
               1    | IRGAGE: precip gage data used in subbasin
               1    | ITGAGE: temp gage data used in subbasin
               1    | ISGAGE: solar radiation gage data used in subbasin
               1    | IHGAGE: relative humidity gage data used in subbasin
               1    | IWGAGE: wind speed gage data used in subbasin
000350000.wgn       | WGNFILE: name of weather generator data file
               1    | FCST_REG: Region number used to assign forecast data to the subbasin
Elevation Bands
| ELEVB: Elevation at center of elevation bands [m]
   0.000   0.000   0.000   0.000   0.000   0.000   0.000   0.000   0.000   0.000
| ELEVB_FR: Fraction of subbasin area within elevation band
   0.000   0.000   0.000   0.000   0.000   0.000   0.000   0.000   0.000   0.000
| SNOEB: Initial snow water content in elevation band [mm]
     0.0     0.0     0.0     0.0     0.0     0.0     0.0     0.0     0.0     0.0
           0.000    | PLAPS : Precipitation lapse rate [mm/km]
           0.000    | TLAPS : Temperature lapse rate [deg C/km]
           0.000    | SNO_SUB : Initial snow water content [mm]
Tributary Channels
           0.315    | CH_L1 : Longest tributary channel length [km]
           0.668    | CH_S1 : Average slope of tributary channel [m/m]
           0.130    | CH_W1 : Average width of tributary channel [m]
           0.000    | CH_K1 : Effective hydraulic conductivity in tributary channel [mm/hr]
           0.014    | CH_N1 : Manning's 'n' value for the tributary channels
Impoundments
000350000.pnd       | PNDFILE: name of subbasin impoundment file
Consumptive Water Use
000350000.wus       | WUSFILE: name of subbasin water use file
Climate Change
         330.000    | CO2 : Carbon dioxide concentration [ppmv]
| RFINC:  Climate change monthly rainfall adjustment (January - June)
   0.000   0.000   0.000   0.000   0.000   0.000
| RFINC:  Climate change monthly rainfall adjustment (July - December)
   0.000   0.000   0.000   0.000   0.000   0.000
| TMPINC: Climate change monthly temperature adjustment (January - June)
   0.000   0.000   0.000   0.000   0.000   0.000
| TMPINC: Climate change monthly temperature adjustment (July - December)
   0.000   0.000   0.000   0.000   0.000   0.000
| RADINC: Climate change monthly radiation adjustment (January - June)
   0.000   0.000   0.000   0.000   0.000   0.000
| RADINC: Climate change monthly radiation adjustment (July - December)
   0.000   0.000   0.000   0.000   0.000   0.000
| HUMINC: Climate change monthly humidity adjustment (January - June)
   0.000   0.000   0.000   0.000   0.000   0.000
| HUMINC: Climate change monthly humidity adjustment (July - December)
   0.000   0.000   0.000   0.000   0.000   0.000
| HRU data
               2    | HRUTOT : Total number of HRUs modeled in subbasin

HRU: Depressional Storage/Pothole

Floodplain

HRU: Riparian

HRU: General
000350001.hru000350001.mgt000350001.sol000350001.chm 000350001.gw             000350001.sep
000350002.hru000350002.mgt000350002.sol000350002.chm 000350002.gw             000350002.sep
