Watershed atmospheric deposition file      .atm file 12/20/2019 06:57:10 QSWAT Workflow v1.5.2




             0.000     0.000     0.000     0.000
             0.000     0.000     0.000     0.000
             0.000     0.000     0.000     0.000
             0.000     0.000     0.000     0.000
             0.000     0.000     0.000     0.000
             0.000     0.000     0.000     0.000
             0.000     0.000     0.000     0.000
             0.000     0.000     0.000     0.000
             0.000     0.000     0.000     0.000
             0.000     0.000     0.000     0.000
             0.000     0.000     0.000     0.000
             0.000     0.000     0.000     0.000
             0.000     0.000     0.000     0.000
             0.000     0.000     0.000     0.000
             0.000     0.000     0.000     0.000
             0.000     0.000     0.000     0.000
             0.000     0.000     0.000     0.000
             0.000     0.000     0.000     0.000
             0.000     0.000     0.000     0.000
             0.000     0.000     0.000     0.000
             0.000     0.000     0.000     0.000
             0.000     0.000     0.000     0.000
             0.000     0.000     0.000     0.000
             0.000     0.000     0.000     0.000
             0.000     0.000     0.000     0.000
             0.000     0.000     0.000     0.000
             0.000     0.000     0.000     0.000
             0.000     0.000     0.000     0.000
             0.000     0.000     0.000     0.000
             0.000     0.000     0.000     0.000
             0.000     0.000     0.000     0.000
             0.000     0.000     0.000     0.000
             0.000     0.000     0.000     0.000
             0.000     0.000     0.000     0.000
             0.000     0.000     0.000     0.000
             0.000     0.000     0.000     0.000
             0.000     0.000     0.000     0.000
             0.000     0.000     0.000     0.000
             0.000     0.000     0.000     0.000
             0.000     0.000     0.000     0.000
             0.000     0.000     0.000     0.000
             0.000     0.000     0.000     0.000
             0.000     0.000     0.000     0.000
             0.000     0.000     0.000     0.000
             0.000     0.000     0.000     0.000
             0.000     0.000     0.000     0.000
             0.000     0.000     0.000     0.000
             0.000     0.000     0.000     0.000
             0.000     0.000     0.000     0.000
             0.000     0.000     0.000     0.000
             0.000     0.000     0.000     0.000
             0.000     0.000     0.000     0.000
             0.000     0.000     0.000     0.000
             0.000     0.000     0.000     0.000
             0.000     0.000     0.000     0.000
             0.000     0.000     0.000     0.000
             0.000     0.000     0.000     0.000
             0.000     0.000     0.000     0.000
             0.000     0.000     0.000     0.000
             0.000     0.000     0.000     0.000
             0.000     0.000     0.000     0.000
             0.000     0.000     0.000     0.000
             0.000     0.000     0.000     0.000
             0.000     0.000     0.000     0.000
             0.000     0.000     0.000     0.000
             0.000     0.000     0.000     0.000
             0.000     0.000     0.000     0.000
             0.000     0.000     0.000     0.000
             0.000     0.000     0.000     0.000
             0.000     0.000     0.000     0.000
             0.000     0.000     0.000     0.000
             0.000     0.000     0.000     0.000
             0.000     0.000     0.000     0.000
             0.000     0.000     0.000     0.000
             0.000     0.000     0.000     0.000
             0.000     0.000     0.000     0.000
             0.000     0.000     0.000     0.000
             0.000     0.000     0.000     0.000
             0.000     0.000     0.000     0.000
             0.000     0.000     0.000     0.000
             0.000     0.000     0.000     0.000
             0.000     0.000     0.000     0.000
             0.000     0.000     0.000     0.000
             0.000     0.000     0.000     0.000
             0.000     0.000     0.000     0.000
             0.000     0.000     0.000     0.000
             0.000     0.000     0.000     0.000
             0.000     0.000     0.000     0.000
             0.000     0.000     0.000     0.000
             0.000     0.000     0.000     0.000
             0.000     0.000     0.000     0.000
             0.000     0.000     0.000     0.000
             0.000     0.000     0.000     0.000
             0.000     0.000     0.000     0.000
             0.000     0.000     0.000     0.000
             0.000     0.000     0.000     0.000
             0.000     0.000     0.000     0.000
             0.000     0.000     0.000     0.000
             0.000     0.000     0.000     0.000
             0.000     0.000     0.000     0.000
             0.000     0.000     0.000     0.000
             0.000     0.000     0.000     0.000
             0.000     0.000     0.000     0.000
             0.000     0.000     0.000     0.000
             0.000     0.000     0.000     0.000
             0.000     0.000     0.000     0.000
             0.000     0.000     0.000     0.000
