 .sub file Subbasin: 33 12/20/2019 06:57:03 QSWAT Workflow v1.5.2
        0.010071    | SUB_KM : Subbasin area [km2]

Climate in subbasin
      -14.290736    | LATITUDE : Latitude of subbasin [degrees]
           88.77    | ELEV : Elevation of subbasin [m]
               4    | IRGAGE: precip gage data used in subbasin
               4    | ITGAGE: temp gage data used in subbasin
               1    | ISGAGE: solar radiation gage data used in subbasin
               1    | IHGAGE: relative humidity gage data used in subbasin
               1    | IWGAGE: wind speed gage data used in subbasin
000330000.wgn       | WGNFILE: name of weather generator data file
               1    | FCST_REG: Region number used to assign forecast data to the subbasin
Elevation Bands
| ELEVB: Elevation at center of elevation bands [m]
   0.000   0.000   0.000   0.000   0.000   0.000   0.000   0.000   0.000   0.000
| ELEVB_FR: Fraction of subbasin area within elevation band
   0.000   0.000   0.000   0.000   0.000   0.000   0.000   0.000   0.000   0.000
| SNOEB: Initial snow water content in elevation band [mm]
     0.0     0.0     0.0     0.0     0.0     0.0     0.0     0.0     0.0     0.0
           0.000    | PLAPS : Precipitation lapse rate [mm/km]
           0.000    | TLAPS : Temperature lapse rate [deg C/km]
           0.000    | SNO_SUB : Initial snow water content [mm]
Tributary Channels
           0.330    | CH_L1 : Longest tributary channel length [km]
           0.415    | CH_S1 : Average slope of tributary channel [m/m]
           0.082    | CH_W1 : Average width of tributary channel [m]
           0.000    | CH_K1 : Effective hydraulic conductivity in tributary channel [mm/hr]
           0.014    | CH_N1 : Manning's 'n' value for the tributary channels
Impoundments
000330000.pnd       | PNDFILE: name of subbasin impoundment file
Consumptive Water Use
000330000.wus       | WUSFILE: name of subbasin water use file
Climate Change
         330.000    | CO2 : Carbon dioxide concentration [ppmv]
| RFINC:  Climate change monthly rainfall adjustment (January - June)
   0.000   0.000   0.000   0.000   0.000   0.000
| RFINC:  Climate change monthly rainfall adjustment (July - December)
   0.000   0.000   0.000   0.000   0.000   0.000
| TMPINC: Climate change monthly temperature adjustment (January - June)
   0.000   0.000   0.000   0.000   0.000   0.000
| TMPINC: Climate change monthly temperature adjustment (July - December)
   0.000   0.000   0.000   0.000   0.000   0.000
| RADINC: Climate change monthly radiation adjustment (January - June)
   0.000   0.000   0.000   0.000   0.000   0.000
| RADINC: Climate change monthly radiation adjustment (July - December)
   0.000   0.000   0.000   0.000   0.000   0.000
| HUMINC: Climate change monthly humidity adjustment (January - June)
   0.000   0.000   0.000   0.000   0.000   0.000
| HUMINC: Climate change monthly humidity adjustment (July - December)
   0.000   0.000   0.000   0.000   0.000   0.000
| HRU data
              10    | HRUTOT : Total number of HRUs modeled in subbasin

HRU: Depressional Storage/Pothole

Floodplain

HRU: Riparian

HRU: General
000330001.hru000330001.mgt000330001.sol000330001.chm 000330001.gw             000330001.sep
000330002.hru000330002.mgt000330002.sol000330002.chm 000330002.gw             000330002.sep
000330003.hru000330003.mgt000330003.sol000330003.chm 000330003.gw             000330003.sep
000330004.hru000330004.mgt000330004.sol000330004.chm 000330004.gw             000330004.sep
000330005.hru000330005.mgt000330005.sol000330005.chm 000330005.gw             000330005.sep
000330006.hru000330006.mgt000330006.sol000330006.chm 000330006.gw             000330006.sep
000330007.hru000330007.mgt000330007.sol000330007.chm 000330007.gw             000330007.sep
000330008.hru000330008.mgt000330008.sol000330008.chm 000330008.gw             000330008.sep
000330009.hru000330009.mgt000330009.sol000330009.chm 000330009.gw             000330009.sep
000330010.hru000330010.mgt000330010.sol000330010.chm 000330010.gw             000330010.sep
