 .sub file Subbasin: 68 12/20/2019 06:57:03 QSWAT Workflow v1.5.2
        0.004473    | SUB_KM : Subbasin area [km2]

Climate in subbasin
      -14.289133    | LATITUDE : Latitude of subbasin [degrees]
          124.05    | ELEV : Elevation of subbasin [m]
               1    | IRGAGE: precip gage data used in subbasin
               1    | ITGAGE: temp gage data used in subbasin
               1    | ISGAGE: solar radiation gage data used in subbasin
               1    | IHGAGE: relative humidity gage data used in subbasin
               1    | IWGAGE: wind speed gage data used in subbasin
000680000.wgn       | WGNFILE: name of weather generator data file
               1    | FCST_REG: Region number used to assign forecast data to the subbasin
Elevation Bands
| ELEVB: Elevation at center of elevation bands [m]
   0.000   0.000   0.000   0.000   0.000   0.000   0.000   0.000   0.000   0.000
| ELEVB_FR: Fraction of subbasin area within elevation band
   0.000   0.000   0.000   0.000   0.000   0.000   0.000   0.000   0.000   0.000
| SNOEB: Initial snow water content in elevation band [mm]
     0.0     0.0     0.0     0.0     0.0     0.0     0.0     0.0     0.0     0.0
           0.000    | PLAPS : Precipitation lapse rate [mm/km]
           0.000    | TLAPS : Temperature lapse rate [deg C/km]
           0.000    | SNO_SUB : Initial snow water content [mm]
Tributary Channels
           0.135    | CH_L1 : Longest tributary channel length [km]
           0.535    | CH_S1 : Average slope of tributary channel [m/m]
           0.050    | CH_W1 : Average width of tributary channel [m]
           0.000    | CH_K1 : Effective hydraulic conductivity in tributary channel [mm/hr]
           0.014    | CH_N1 : Manning's 'n' value for the tributary channels
Impoundments
000680000.pnd       | PNDFILE: name of subbasin impoundment file
Consumptive Water Use
000680000.wus       | WUSFILE: name of subbasin water use file
Climate Change
         330.000    | CO2 : Carbon dioxide concentration [ppmv]
| RFINC:  Climate change monthly rainfall adjustment (January - June)
   0.000   0.000   0.000   0.000   0.000   0.000
| RFINC:  Climate change monthly rainfall adjustment (July - December)
   0.000   0.000   0.000   0.000   0.000   0.000
| TMPINC: Climate change monthly temperature adjustment (January - June)
   0.000   0.000   0.000   0.000   0.000   0.000
| TMPINC: Climate change monthly temperature adjustment (July - December)
   0.000   0.000   0.000   0.000   0.000   0.000
| RADINC: Climate change monthly radiation adjustment (January - June)
   0.000   0.000   0.000   0.000   0.000   0.000
| RADINC: Climate change monthly radiation adjustment (July - December)
   0.000   0.000   0.000   0.000   0.000   0.000
| HUMINC: Climate change monthly humidity adjustment (January - June)
   0.000   0.000   0.000   0.000   0.000   0.000
| HUMINC: Climate change monthly humidity adjustment (July - December)
   0.000   0.000   0.000   0.000   0.000   0.000
| HRU data
               2    | HRUTOT : Total number of HRUs modeled in subbasin

HRU: Depressional Storage/Pothole

Floodplain

HRU: Riparian

HRU: General
000680001.hru000680001.mgt000680001.sol000680001.chm 000680001.gw             000680001.sep
000680002.hru000680002.mgt000680002.sol000680002.chm 000680002.gw             000680002.sep
