 .sub file Subbasin: 107 12/20/2019 06:57:03 QSWAT Workflow v1.5.2
        0.010170    | SUB_KM : Subbasin area [km2]

Climate in subbasin
      -14.292109    | LATITUDE : Latitude of subbasin [degrees]
           46.26    | ELEV : Elevation of subbasin [m]
               5    | IRGAGE: precip gage data used in subbasin
               5    | ITGAGE: temp gage data used in subbasin
               1    | ISGAGE: solar radiation gage data used in subbasin
               1    | IHGAGE: relative humidity gage data used in subbasin
               1    | IWGAGE: wind speed gage data used in subbasin
001070000.wgn       | WGNFILE: name of weather generator data file
               1    | FCST_REG: Region number used to assign forecast data to the subbasin
Elevation Bands
| ELEVB: Elevation at center of elevation bands [m]
   0.000   0.000   0.000   0.000   0.000   0.000   0.000   0.000   0.000   0.000
| ELEVB_FR: Fraction of subbasin area within elevation band
   0.000   0.000   0.000   0.000   0.000   0.000   0.000   0.000   0.000   0.000
| SNOEB: Initial snow water content in elevation band [mm]
     0.0     0.0     0.0     0.0     0.0     0.0     0.0     0.0     0.0     0.0
           0.000    | PLAPS : Precipitation lapse rate [mm/km]
           0.000    | TLAPS : Temperature lapse rate [deg C/km]
           0.000    | SNO_SUB : Initial snow water content [mm]
Tributary Channels
           0.276    | CH_L1 : Longest tributary channel length [km]
           0.422    | CH_S1 : Average slope of tributary channel [m/m]
           0.082    | CH_W1 : Average width of tributary channel [m]
           0.000    | CH_K1 : Effective hydraulic conductivity in tributary channel [mm/hr]
           0.014    | CH_N1 : Manning's 'n' value for the tributary channels
Impoundments
001070000.pnd       | PNDFILE: name of subbasin impoundment file
Consumptive Water Use
001070000.wus       | WUSFILE: name of subbasin water use file
Climate Change
         330.000    | CO2 : Carbon dioxide concentration [ppmv]
| RFINC:  Climate change monthly rainfall adjustment (January - June)
   0.000   0.000   0.000   0.000   0.000   0.000
| RFINC:  Climate change monthly rainfall adjustment (July - December)
   0.000   0.000   0.000   0.000   0.000   0.000
| TMPINC: Climate change monthly temperature adjustment (January - June)
   0.000   0.000   0.000   0.000   0.000   0.000
| TMPINC: Climate change monthly temperature adjustment (July - December)
   0.000   0.000   0.000   0.000   0.000   0.000
| RADINC: Climate change monthly radiation adjustment (January - June)
   0.000   0.000   0.000   0.000   0.000   0.000
| RADINC: Climate change monthly radiation adjustment (July - December)
   0.000   0.000   0.000   0.000   0.000   0.000
| HUMINC: Climate change monthly humidity adjustment (January - June)
   0.000   0.000   0.000   0.000   0.000   0.000
| HUMINC: Climate change monthly humidity adjustment (July - December)
   0.000   0.000   0.000   0.000   0.000   0.000
| HRU data
              10    | HRUTOT : Total number of HRUs modeled in subbasin

HRU: Depressional Storage/Pothole

Floodplain

HRU: Riparian

HRU: General
001070001.hru001070001.mgt001070001.sol001070001.chm 001070001.gw             001070001.sep
001070002.hru001070002.mgt001070002.sol001070002.chm 001070002.gw             001070002.sep
001070003.hru001070003.mgt001070003.sol001070003.chm 001070003.gw             001070003.sep
001070004.hru001070004.mgt001070004.sol001070004.chm 001070004.gw             001070004.sep
001070005.hru001070005.mgt001070005.sol001070005.chm 001070005.gw             001070005.sep
001070006.hru001070006.mgt001070006.sol001070006.chm 001070006.gw             001070006.sep
001070007.hru001070007.mgt001070007.sol001070007.chm 001070007.gw             001070007.sep
001070008.hru001070008.mgt001070008.sol001070008.chm 001070008.gw             001070008.sep
001070009.hru001070009.mgt001070009.sol001070009.chm 001070009.gw             001070009.sep
001070010.hru001070010.mgt001070010.sol001070010.chm 001070010.gw             001070010.sep
