 .sub file Subbasin: 100 12/20/2019 06:57:03 QSWAT Workflow v1.5.2
        0.007731    | SUB_KM : Subbasin area [km2]

Climate in subbasin
      -14.288233    | LATITUDE : Latitude of subbasin [degrees]
           53.70    | ELEV : Elevation of subbasin [m]
               1    | IRGAGE: precip gage data used in subbasin
               1    | ITGAGE: temp gage data used in subbasin
               1    | ISGAGE: solar radiation gage data used in subbasin
               1    | IHGAGE: relative humidity gage data used in subbasin
               1    | IWGAGE: wind speed gage data used in subbasin
001000000.wgn       | WGNFILE: name of weather generator data file
               1    | FCST_REG: Region number used to assign forecast data to the subbasin
Elevation Bands
| ELEVB: Elevation at center of elevation bands [m]
   0.000   0.000   0.000   0.000   0.000   0.000   0.000   0.000   0.000   0.000
| ELEVB_FR: Fraction of subbasin area within elevation band
   0.000   0.000   0.000   0.000   0.000   0.000   0.000   0.000   0.000   0.000
| SNOEB: Initial snow water content in elevation band [mm]
     0.0     0.0     0.0     0.0     0.0     0.0     0.0     0.0     0.0     0.0
           0.000    | PLAPS : Precipitation lapse rate [mm/km]
           0.000    | TLAPS : Temperature lapse rate [deg C/km]
           0.000    | SNO_SUB : Initial snow water content [mm]
Tributary Channels
           0.215    | CH_L1 : Longest tributary channel length [km]
           0.552    | CH_S1 : Average slope of tributary channel [m/m]
           0.070    | CH_W1 : Average width of tributary channel [m]
           0.000    | CH_K1 : Effective hydraulic conductivity in tributary channel [mm/hr]
           0.014    | CH_N1 : Manning's 'n' value for the tributary channels
Impoundments
001000000.pnd       | PNDFILE: name of subbasin impoundment file
Consumptive Water Use
001000000.wus       | WUSFILE: name of subbasin water use file
Climate Change
         330.000    | CO2 : Carbon dioxide concentration [ppmv]
| RFINC:  Climate change monthly rainfall adjustment (January - June)
   0.000   0.000   0.000   0.000   0.000   0.000
| RFINC:  Climate change monthly rainfall adjustment (July - December)
   0.000   0.000   0.000   0.000   0.000   0.000
| TMPINC: Climate change monthly temperature adjustment (January - June)
   0.000   0.000   0.000   0.000   0.000   0.000
| TMPINC: Climate change monthly temperature adjustment (July - December)
   0.000   0.000   0.000   0.000   0.000   0.000
| RADINC: Climate change monthly radiation adjustment (January - June)
   0.000   0.000   0.000   0.000   0.000   0.000
| RADINC: Climate change monthly radiation adjustment (July - December)
   0.000   0.000   0.000   0.000   0.000   0.000
| HUMINC: Climate change monthly humidity adjustment (January - June)
   0.000   0.000   0.000   0.000   0.000   0.000
| HUMINC: Climate change monthly humidity adjustment (July - December)
   0.000   0.000   0.000   0.000   0.000   0.000
| HRU data
              10    | HRUTOT : Total number of HRUs modeled in subbasin

HRU: Depressional Storage/Pothole

Floodplain

HRU: Riparian

HRU: General
001000001.hru001000001.mgt001000001.sol001000001.chm 001000001.gw             001000001.sep
001000002.hru001000002.mgt001000002.sol001000002.chm 001000002.gw             001000002.sep
001000003.hru001000003.mgt001000003.sol001000003.chm 001000003.gw             001000003.sep
001000004.hru001000004.mgt001000004.sol001000004.chm 001000004.gw             001000004.sep
001000005.hru001000005.mgt001000005.sol001000005.chm 001000005.gw             001000005.sep
001000006.hru001000006.mgt001000006.sol001000006.chm 001000006.gw             001000006.sep
001000007.hru001000007.mgt001000007.sol001000007.chm 001000007.gw             001000007.sep
001000008.hru001000008.mgt001000008.sol001000008.chm 001000008.gw             001000008.sep
001000009.hru001000009.mgt001000009.sol001000009.chm 001000009.gw             001000009.sep
001000010.hru001000010.mgt001000010.sol001000010.chm 001000010.gw             001000010.sep
