 .chm file Watershed HRU:405 Subbasin:102 HRU:4 Luse:FRSE Soil: URBAN LAND Slope: 0-1.0 12/20/2019 06:56:12 QSWAT Workflow v1.5.2
Soil Nutrient Data
 Soil Layer               :           1           2           3           4           5           6           7           8           9          10
 Soil NO3 [mg/kg]         :        0.00        0.00        0.00        0.00        0.00        0.00        0.00        0.00        0.00        0.00
 Soil organic N [mg/kg]   :        0.00        0.00        0.00        0.00        0.00        0.00        0.00        0.00        0.00        0.00
 Soil labile P [mg/kg]    :        5.00        5.00        5.00        5.00        5.00        5.00        5.00        5.00        5.00        5.00
 Soil organic P [mg/kg]   :        0.00        0.00        0.00        0.00        0.00        0.00        0.00        0.00        0.00        0.00
 Phosphorus perc coef     :       10.00       10.00       10.00       10.00       10.00       10.00       10.00       10.00       10.00       10.00
Soil Pesticide Data
 Pesticide  Pst on plant    Pst in 1st soil layer Pst enrichment
   #           [kg/ha]           [kg/ha]           [kg/ha]
                  0.00              0.00              0.00
                  0.00              0.00              0.00
                  0.00              0.00              0.00
                  0.00              0.00              0.00
                  0.00              0.00              0.00
                  0.00              0.00              0.00
                  0.00              0.00              0.00
                  0.00              0.00              0.00
                  0.00              0.00              0.00
                  0.00              0.00              0.00
