 .Sol file Watershed HRU:31 Subbasin:3 HRU:9 Luse:SWCH Soil: OLOAVA Slope: 3.0-9999 2/11/2020 16:57:01 QSWAT Workflow v1.5.2
 Soil Name: OLOAVA
 Soil Hydrologic Group: B
 Maximum rooting depth(mm) : 1520.00
 Porosity fraction from which anions are excluded: 0.500
 Crack volume potential of soil: 0.500
 Texture 1                : SICL-CL-GR-SIL-GRV-SL
 Depth                [mm]:      230.00      360.00      430.00     1520.00
 Bulk Density Moist [g/cc]:        0.75        0.75        0.75        1.00
 Ave. AW Incl. Rock Frag  :        0.13        0.13        0.07        0.09
 Ksat. (est.)      [mm/hr]:      101.63      101.63      330.26      508.10
 Organic Carbon [weight %]:        7.83        1.16        0.44        0.29
 Clay           [weight %]:       34.00       34.00       20.00       10.00
 Silt           [weight %]:       56.00       40.30       68.60       23.10
 Sand           [weight %]:       10.00       25.70       11.40       66.90
 Rock Fragments   [vol. %]:        6.00        6.00       20.00       29.00
 Soil Albedo (Moist)      :        0.16        0.16        0.16        0.16
 Erosion K                :        0.10        0.15        0.20        0.20
 Salinity (EC, Form 5)    :        0.00        0.00        0.00        0.00
 Soil pH                  :        0.00        0.00        0.00        0.00
 Soil CACO3               :        0.00        0.00        0.00        0.00
                              
