 .Sol file Watershed HRU:42 Subbasin:5 HRU:2 Luse:FRSE Soil: LEAFU Slope: 1.0-3.0 2/11/2020 16:57:01 QSWAT Workflow v1.5.2
 Soil Name: LEAFU
 Soil Hydrologic Group: C
 Maximum rooting depth(mm) : 1520.00
 Porosity fraction from which anions are excluded: 0.500
 Crack volume potential of soil: 0.500
 Texture 1                : SIC-VFSL-SIC
 Depth                [mm]:      330.00      480.00     1520.00
 Bulk Density Moist [g/cc]:        0.95        0.95        0.95
 Ave. AW Incl. Rock Frag  :        0.14        0.17        0.12
 Ksat. (est.)      [mm/hr]:      101.63      101.63      101.63
 Organic Carbon [weight %]:        3.48        0.87        0.44
 Clay           [weight %]:       47.00       17.50       60.00
 Silt           [weight %]:       47.00       23.20       40.00
 Sand           [weight %]:        6.00       59.30        0.00
 Rock Fragments   [vol. %]:        2.00       16.00        2.00
 Soil Albedo (Moist)      :        0.16        0.16        0.16
 Erosion K                :        0.17        0.24        0.17
 Salinity (EC, Form 5)    :        0.00        0.00        0.00
 Soil pH                  :        0.00        0.00        0.00
 Soil CACO3               :        0.00        0.00        0.00
                              
