 .Sol file Watershed HRU:15 Subbasin:4 HRU:2 Luse:URHD Soil: URBAN LAND Slope: 1.0-3.0 2/7/2020 21:38:34 QSWAT Workflow v1.5.2
 Soil Name: URBAN LAND
 Soil Hydrologic Group: D
 Maximum rooting depth(mm) :  150.00
 Porosity fraction from which anions are excluded: 0.500
 Crack volume potential of soil: 0.500
 Texture 1                : VAR
 Depth                [mm]:      150.00
 Bulk Density Moist [g/cc]:        0.00
 Ave. AW Incl. Rock Frag  :        0.00
 Ksat. (est.)      [mm/hr]:        0.01
 Organic Carbon [weight %]:        0.00
 Clay           [weight %]:        0.00
 Silt           [weight %]:        0.00
 Sand           [weight %]:        0.00
 Rock Fragments   [vol. %]:        0.00
 Soil Albedo (Moist)      :        0.16
 Erosion K                :        0.00
 Salinity (EC, Form 5)    :        0.00
 Soil pH                  :        0.00
 Soil CACO3               :        0.00
                              
