 .Sol file Watershed HRU:22 Subbasin:5 HRU:2 Luse:FRSE Soil: AUA Slope: 3.0-9999 2/7/2020 13:52:56 QSWAT Workflow v1.5.2
 Soil Name: AUA
 Soil Hydrologic Group: B
 Maximum rooting depth(mm) : 1520.00
 Porosity fraction from which anions are excluded: 0.500
 Crack volume potential of soil: 0.500
 Texture 1                : STV-SICL-ST-CL-STV-CL
 Depth                [mm]:      180.00      460.00     1520.00
 Bulk Density Moist [g/cc]:        0.95        0.95        0.95
 Ave. AW Incl. Rock Frag  :        0.13        0.13        0.10
 Ksat. (est.)      [mm/hr]:      101.63      101.63      101.63
 Organic Carbon [weight %]:        3.48        1.16        1.74
 Clay           [weight %]:       34.00       37.00       37.00
 Silt           [weight %]:       56.00       33.40       33.40
 Sand           [weight %]:       10.00       29.60       29.60
 Rock Fragments   [vol. %]:       36.00       30.00       40.00
 Soil Albedo (Moist)      :        0.16        0.16        0.16
 Erosion K                :        0.17        0.20        0.20
 Salinity (EC, Form 5)    :        0.00        0.00        0.00
 Soil pH                  :        0.00        0.00        0.00
 Soil CACO3               :        0.00        0.00        0.00
                              
